[TITLE]
;;Project Title/Notes
Test Project Street
A test project for swmming generated by test_street

[OPTIONS]
;;Option             Value
FLOW_UNITS           LPS
INFILTRATION         MODIFIED_GREEN_AMPT
FLOW_ROUTING         DYNWAVE
LINK_OFFSETS         DEPTH
FORCE_MAIN_EQUATION  H-W
IGNORE_RAINFALL      NO
IGNORE_SNOWMELT      NO
IGNORE_GROUNDWATER   NO
IGNORE_RDII          NO
IGNORE_ROUTING       NO
IGNORE_QUALITY       NO
ALLOW_PONDING        NO
SKIP_STEADY_STATE    NO
SYS_FLOW_TOL         5
LAT_FLOW_TOL         5
START_DATE           1/1/2004
START_TIME           0:00:00
END_DATE             1/1/2004
END_TIME             23:59:59
REPORT_START_DATE    1/1/2004
REPORT_START_TIME    0:00:00
SWEEP_START          1/1
SWEEP_END            12/31
DRY_DAYS             0
REPORT_STEP          0:15:00
WET_STEP             0:05:00
DRY_STEP             1:00:00
ROUTING_STEP         20.0
LENGTHENING_STEP     0.0
VARIABLE_STEP        0.0
MINIMUM_STEP         0.5
INERTIAL_DAMPING     PARTIAL
NORMAL_FLOW_LIMITED  BOTH
SURCHARGE_METHOD     EXTRAN
MIN_SURFAREA         0
MIN_SLOPE            0
MAX_TRIALS           8
HEAD_TOLERANCE       0.005
THREADS              8


[JUNCTIONS]
;;Name           Elevation  MaxDepth   InitDepth  SurDepth   Aponded    
;;-------------- ---------- ---------- ---------- ---------- ---------- 
j1               100.000    0.00       0.00       0.00       0          
j2               99.500     0.00       0.00       0.00       0          


[OUTFALLS]
;;Name           Elevation  Type       Stage Data       Gated    Route To        
;;-------------- ---------- ---------- ---------------- -------- ----------------
out1             99.000     FREE                        NO       


[CONDUITS]
;;Name           From Node        To Node          Length     Roughness  InOffset   OutOffset  InitFlow   MaxFlow   
;;-------------- ---------------- ---------------- ---------- ---------- ---------- ---------- ---------- ----------
conduit1         j1               j2               100.00     0.01500    0.00       0.00       0.00                 
conduit2         j2               out1             50.00      0.01200    0.00       0.00       0.00                 


[XSECTIONS]
;;Link           Shape        Geom1            Geom2      Geom3      Geom4      Barrels    Culvert   
;;-------------- ------------ ---------------- ---------- ---------- ---------- ---------- ----------
conduit1         STREET       street1         
conduit2         STREET       street1         


[STREETS]
;;Name           Tcrown   Hcurb    Sx       nRoad    a        W        Sides    Tback    Sback    nBack   
;;-------------- -------- -------- -------- -------- -------- -------- -------- -------- -------- --------
street1          0.20     0.10     0.1000   0.0500   0.00     0.00     1        0.00     0.0000   0.0000  


[INLETS]
;;Name           Type             Parameters:
;;-------------- ---------------- -----------
inlet1           GRATE            2.00      0.75      P_BAR-50    
inlet2           CURB             1.20      4.80      HORIZONTAL  


[INLET_USAGE]
;;Conduit        Inlet            Node             Number    %Clogged  Qmax      aLocal    wLocal    Placement
;;-------------- ---------------- ---------------- --------- --------- --------- --------- --------- --------- ---------
conduit1         inlet1           j2               1         25.00     0.00      0.00      0.00      AUTOMATIC          
conduit1         inlet2           j2               1         0.00      0.00      0.00      0.00      AUTOMATIC          


