[TITLE]
;;Project Title/Notes
Test Project Transects
A test project for swmming generated by test_transects

[OPTIONS]
;;Option             Value
FLOW_UNITS           LPS
INFILTRATION         HORTON
FLOW_ROUTING         DYNWAVE
LINK_OFFSETS         DEPTH
FORCE_MAIN_EQUATION  H-W
IGNORE_RAINFALL      NO
IGNORE_SNOWMELT      NO
IGNORE_GROUNDWATER   NO
IGNORE_RDII          NO
IGNORE_ROUTING       NO
IGNORE_QUALITY       NO
ALLOW_PONDING        NO
SKIP_STEADY_STATE    NO
SYS_FLOW_TOL         5
LAT_FLOW_TOL         5
START_DATE           1/1/2004
START_TIME           0:00:00
END_DATE             1/1/2004
END_TIME             23:59:59
REPORT_START_DATE    1/1/2004
REPORT_START_TIME    0:00:00
SWEEP_START          1/1
SWEEP_END            12/31
DRY_DAYS             0
REPORT_STEP          0:15:00
WET_STEP             0:05:00
DRY_STEP             1:00:00
ROUTING_STEP         20.0
LENGTHENING_STEP     0.0
VARIABLE_STEP        0.0
MINIMUM_STEP         0.5
INERTIAL_DAMPING     PARTIAL
NORMAL_FLOW_LIMITED  BOTH
SURCHARGE_METHOD     EXTRAN
MIN_SURFAREA         0
MIN_SLOPE            0
MAX_TRIALS           8
HEAD_TOLERANCE       0.005
THREADS              8


[JUNCTIONS]
;;Name           Elevation  MaxDepth   InitDepth  SurDepth   Aponded    
;;-------------- ---------- ---------- ---------- ---------- ---------- 
j1               5.000      0.00       0.00       0.00       0          
j2               0.000      0.00       0.00       0.00       0          


[OUTFALLS]
;;Name           Elevation  Type       Stage Data       Gated    Route To        
;;-------------- ---------- ---------- ---------------- -------- ----------------
out1             -1.000     FREE                        NO       


[CONDUITS]
;;Name           From Node        To Node          Length     Roughness  InOffset   OutOffset  InitFlow   MaxFlow   
;;-------------- ---------------- ---------------- ---------- ---------- ---------- ---------- ---------- ----------
c1               j1               j2               100.00     0.01500    0.00       0.00       0.00                 
c2               j1               out1             120.00     0.01000    0.00       0.00       0.00                 


[XSECTIONS]
;;Link           Shape        Geom1            Geom2      Geom3      Geom4      Barrels    Culvert   
;;-------------- ------------ ---------------- ---------- ---------- ---------- ---------- ----------
c1               IRREGULAR    transect1       
c2               IRREGULAR    transect2       


[TRANSECTS]
;;Transect Data in HEC-2 format
;
NC 0.0200      0.0200     0.0100    
X1 transect1         11       1.00     3.00     0.0      0.0      0.00     0.80     0.0     
GR 10.00    0.00     9.00     1.00     8.00     2.00     7.00     3.00     6.00     4.00     
GR 5.00     5.00     6.00     6.00     7.00     7.00     8.00     8.00     9.00     9.00     
GR 10.00    10.00    
;
NC 0.0250      0.0250     0.0000    
X1 transect2         11       1.00     3.00     0.0      0.0      0.00     0.00     0       
GR 10.00    0.00     8.00     1.00     6.00     2.00     4.00     3.00     2.00     4.00     
GR 0.00     5.00     2.00     6.00     4.00     7.00     6.00     8.00     8.00     9.00     
GR 10.00    10.00    


