[TITLE]
;;Project Title/Notes
Test Project Conduit
A test project for swmming generated by test_conduit

[OPTIONS]
;;Option             Value
FLOW_UNITS           CFS
INFILTRATION         MODIFIED_GREEN_AMPT
FLOW_ROUTING         DYNWAVE
LINK_OFFSETS         DEPTH
FORCE_MAIN_EQUATION  H-W
IGNORE_RAINFALL      NO
IGNORE_SNOWMELT      NO
IGNORE_GROUNDWATER   NO
IGNORE_RDII          NO
IGNORE_ROUTING       NO
IGNORE_QUALITY       NO
ALLOW_PONDING        NO
SKIP_STEADY_STATE    NO
SYS_FLOW_TOL         5
LAT_FLOW_TOL         5
START_DATE           1/1/2004
START_TIME           0:00:00
END_DATE             1/1/2004
END_TIME             23:59:59
REPORT_START_DATE    1/1/2004
REPORT_START_TIME    0:00:00
SWEEP_START          1/1
SWEEP_END            12/31
DRY_DAYS             0
REPORT_STEP          0:15:00
WET_STEP             0:05:00
DRY_STEP             1:00:00
ROUTING_STEP         20.0
LENGTHENING_STEP     0.0
VARIABLE_STEP        0.0
MINIMUM_STEP         0.5
INERTIAL_DAMPING     PARTIAL
NORMAL_FLOW_LIMITED  BOTH
SURCHARGE_METHOD     EXTRAN
MIN_SURFAREA         0
MIN_SLOPE            0
MAX_TRIALS           8
HEAD_TOLERANCE       0.005
THREADS              8


[JUNCTIONS]
;;Name           Elevation  MaxDepth   InitDepth  SurDepth   Aponded    
;;-------------- ---------- ---------- ---------- ---------- ---------- 
j1               10.000     0.00       0.00       0.00       0          
j2               9.000      0.00       0.00       0.00       0          


[OUTFALLS]
;;Name           Elevation  Type       Stage Data       Gated    Route To        
;;-------------- ---------- ---------- ---------------- -------- ----------------
out1             8.000      FREE                        NO       


[CONDUITS]
;;Name           From Node        To Node          Length     Roughness  InOffset   OutOffset  InitFlow   MaxFlow   
;;-------------- ---------------- ---------------- ---------- ---------- ---------- ---------- ---------- ----------
c1               j1               j2               100.00     0.01500    0.00       0.00       0.00                 
c2               j2               out1             200.00     0.01200    0.00       0.00       0.00                 


[XSECTIONS]
;;Link           Shape        Geom1            Geom2      Geom3      Geom4      Barrels    Culvert   
;;-------------- ------------ ---------------- ---------- ---------- ---------- ---------- ----------
c1               CIRCULAR     10.00            0.00       0.00       0.00       1                    
c2               TRAPEZOIDAL  10.00            5.00       2.00       2.50       1                    


[MAP]
DIMENSIONS -50.00 -50.00 300.00 150.00
UNITS     METERS


[COORDINATES]
;;Node           X-Coord            Y-Coord           
;;-------------- ------------------ ------------------
j1               0.000              0.000             
j2               100.000            0.000             
out1             250.000            100.000           


[VERTICES]
;;Link           X-Coord            Y-Coord           
;;-------------- ------------------ ------------------
c1               10.000             9.000             
c1               20.000             16.000            
c1               30.000             21.000            
c1               40.000             24.000            
c1               50.000             25.000            
c1               60.000             24.000            
c1               70.000             21.000            
c1               80.000             16.000            
c1               90.000             9.000             
c2               150.000            50.000            


