[TITLE]
;;Project Title/Notes
Test Project Subcatchments
A test project for swmming generated by test_subcatch

[OPTIONS]
;;Option             Value
FLOW_UNITS           LPS
INFILTRATION         HORTON
FLOW_ROUTING         KINWAVE
LINK_OFFSETS         DEPTH
FORCE_MAIN_EQUATION  H-W
IGNORE_RAINFALL      NO
IGNORE_SNOWMELT      NO
IGNORE_GROUNDWATER   NO
IGNORE_RDII          NO
IGNORE_ROUTING       NO
IGNORE_QUALITY       NO
ALLOW_PONDING        NO
SKIP_STEADY_STATE    NO
SYS_FLOW_TOL         5
LAT_FLOW_TOL         5
START_DATE           1/1/2004
START_TIME           0:00:00
END_DATE             1/1/2004
END_TIME             23:59:59
REPORT_START_DATE    1/1/2004
REPORT_START_TIME    0:00:00
SWEEP_START          1/1
SWEEP_END            12/31
DRY_DAYS             0
REPORT_STEP          0:15:00
WET_STEP             0:05:00
DRY_STEP             1:00:00
ROUTING_STEP         20.0
LENGTHENING_STEP     0.0
VARIABLE_STEP        0.0
MINIMUM_STEP         0.5
INERTIAL_DAMPING     PARTIAL
NORMAL_FLOW_LIMITED  BOTH
SURCHARGE_METHOD     EXTRAN
MIN_SURFAREA         0
MIN_SLOPE            0
MAX_TRIALS           8
HEAD_TOLERANCE       0.005
THREADS              8


[SUBCATCHMENTS]
;;Name           Rain Gage        Outlet           Area     %Imperv  Width    %Slope   CurbLen  SnowPack        
;;-------------- ---------------- ---------------- -------- -------- -------- -------- -------- ----------------
s1               rg1              j1               100.00   100.00   100.00   0.1500   0.00                     
s2               rg2              j1               200.00   25.00    123.00   0.9000   0.00                     


[SUBAREAS]
;;Subcatchment   N-Imperv   N-Perv     S-Imperv   S-Perv     PctZero    RouteTo    PctRouted 
;;-------------- ---------- ---------- ---------- ---------- ---------- ---------- ----------
s1               0.0150     0.1230     0.0100     0.0110     50.00      OUTLET     100.00    
s2               0.0150     0.1230     0.1090     0.1000     10.00      OUTLET     100.00    


[INFILTRATION]
;;Subcatchment   Param1     Param2     Param3     Param4     Param5    
;;-------------- ---------- ---------- ---------- ---------- ----------
s1               1.00       2.00       3.00       4.00       5.00       HORTON
s2               10.00      20.00      30.00                            MODIFIED_GREEN_AMPT


[JUNCTIONS]
;;Name           Elevation  MaxDepth   InitDepth  SurDepth   Aponded    
;;-------------- ---------- ---------- ---------- ---------- ---------- 
j1               150.000    0.00       0.00       0.00       0          


[TIMESERIES]
;;Name           Date       Time       Value     
;;-------------- ---------- ---------- ----------
; A short description of timeseries1             
timeseries1      1/1/2022   0.00       0.000     
timeseries1                 1.00       0.500     
timeseries1                 2.00       1.000     
timeseries1                 3.00       0.150     
;                                                
timeseries2      1/1/2022   0.00       0.000     
timeseries2                 1.00       0.000     
timeseries2                 2.00       0.000     
timeseries2                 3.00       0.000     
; A loong description A loong description A loong
; description A loong description A loong        
; description                                    
timeseries3      1/1/2022   0.00       10.000    
timeseries3                 1.00       20.000    
timeseries3                 2.00       50.000    


[MAP]
DIMENSIONS -10.00 -10.00 30.00 20.00
UNITS     METERS


[COORDINATES]
;;Node           X-Coord            Y-Coord           
;;-------------- ------------------ ------------------
j1               5.000              15.000            


[POLYGONS]
;;Subcatchment   X-Coord            Y-Coord           
;;-------------- ------------------ ------------------
s1               0.000              0.000             
s1               10.000             0.000             
s1               10.000             10.000            
s1               6.000              10.000            
s1               6.000              4.000             
s1               0.000              4.000             
s1               0.000              0.000             
s2               20.000             20.000            
s2               15.000             18.000            
s2               21.000             14.000            


