[TITLE]
;;Project Title/Notes
Test Project Transects
A test project for swmming generated by test_transects

[OPTIONS]
;;Option             Value
FLOW_UNITS           LPS
INFILTRATION         HORTON
FLOW_ROUTING         DYNWAVE
LINK_OFFSETS         DEPTH
MIN_SLOPE            0
ALLOW_PONDING        NO
SKIP_STEADY_STATE    NO

START_DATE           01/01/2004
START_TIME           00:00:00
REPORT_START_DATE    01/01/2004
REPORT_START_TIME    00:00:00
END_DATE             01/01/2004
END_TIME             23:59:59
SWEEP_START          1/1
SWEEP_END            12/31
DRY_DAYS             0
REPORT_STEP          0:15:00
WET_STEP             0:05:00
DRY_STEP             1:00:00
ROUTING_STEP         0:00:20 
RULE_STEP            00:00:00

INERTIAL_DAMPING     PARTIAL
NORMAL_FLOW_LIMITED  BOTH
FORCE_MAIN_EQUATION  H-W
VARIABLE_STEP        0.00
LENGTHENING_STEP     0
MIN_SURFAREA         0
MAX_TRIALS           8
HEAD_TOLERANCE       0.005
SYS_FLOW_TOL         5
LAT_FLOW_TOL         5
MINIMUM_STEP         0.5
THREADS              8

[EVAPORATION]
;;Data Source    Parameters
;;-------------- ----------------
CONSTANT         0.0
DRY_ONLY         NO

[JUNCTIONS]
;;Name           Elevation  MaxDepth   InitDepth  SurDepth   Aponded   
;;-------------- ---------- ---------- ---------- ---------- ----------
j1               5.000      0.00       0.00       0.00       0         
j2               0.000      0.00       0.00       0.00       0         

[OUTFALLS]
;;Name           Elevation  Type       Stage Data       Gated    Route To        
;;-------------- ---------- ---------- ---------------- -------- ----------------
out1             -1.000     FREE                        NO                       

[CONDUITS]
;;Name           From Node        To Node          Length     Roughness  InOffset   OutOffset  InitFlow   MaxFlow   
;;-------------- ---------------- ---------------- ---------- ---------- ---------- ---------- ---------- ----------
c1               j1               j2               100.00     0.01500    0.00       0.00       0.00       0         
c2               j1               out1             120.00     0.01000    0.00       0.00       0.00       0         

[XSECTIONS]
;;Link           Shape        Geom1            Geom2      Geom3      Geom4      Barrels    Culvert   
;;-------------- ------------ ---------------- ---------- ---------- ---------- ---------- ----------
c1               IRREGULAR    transect1       
c2               IRREGULAR    transect2       

[TRANSECTS]
;;Transect Data in HEC-2 format
;
NC 0.0200   0.0200   0.0100  
X1 transect1         11       1.00     3.00     0.0      0.0      0        0.10     0.95    
GR 10.00    0.00     9.00     1.00     8.00     2.00     7.00     3.00     6.00     4.00    
GR 5.00     5.00     6.00     6.00     7.00     7.00     8.00     8.00     9.00     9.00    
GR 10.00    10.00   
;
NC 0.0250   0.0250   0.0000  
X1 transect2         11       1.00     3.00     0.0      0.0      0        0.00     0.00    
GR 10.00    0.00     8.00     1.00     6.00     2.00     4.00     3.00     2.00     4.00    
GR 0.00     5.00     2.00     6.00     4.00     7.00     6.00     8.00     8.00     9.00    
GR 10.00    10.00   

[REPORT]
;;Reporting Options
SUBCATCHMENTS ALL
NODES ALL
LINKS ALL

[TAGS]

[MAP]
DIMENSIONS 10000000000.000 10000000000.000 -10000000000.000 -10000000000.000
Units      None

[COORDINATES]
;;Node           X-Coord            Y-Coord           
;;-------------- ------------------ ------------------

[VERTICES]
;;Link           X-Coord            Y-Coord           
;;-------------- ------------------ ------------------

[Polygons]
