[TITLE]
;;Project Title/Notes
Project Title
Project Description

[OPTIONS]
;;Option             Value
FLOW_UNITS           CFS
INFILTRATION         HORTON
FLOW_ROUTING         DYNWAVE
LINK_OFFSETS         DEPTH
FORCE_MAIN_EQUATION  H-W
IGNORE_RAINFALL      NO
IGNORE_SNOWMELT      NO
IGNORE_GROUNDWATER   NO
IGNORE_RDII          NO
IGNORE_ROUTING       NO
IGNORE_QUALITY       NO
ALLOW_PONDING        NO
SKIP_STEADY_STATE    NO
SYS_FLOW_TOL         5
LAT_FLOW_TOL         5
START_DATE           1/1/2004
START_TIME           0:00:00
END_DATE             1/1/2004
END_TIME             23:59:59
REPORT_START_DATE    1/1/2004
REPORT_START_TIME    0:00:00
SWEEP_START          1/1
SWEEP_END            12/31
DRY_DAYS             0
REPORT_STEP          0:15:00
WET_STEP             0:05:00
DRY_STEP             1:00:00
ROUTING_STEP         20.0
LENGTHENING_STEP     0.0
VARIABLE_STEP        0.0
MINIMUM_STEP         0.5
INERTIAL_DAMPING     PARTIAL
NORMAL_FLOW_LIMITED  BOTH
SURCHARGE_METHOD     EXTRAN
MIN_SURFAREA         0
MIN_SLOPE            0
MAX_TRIALS           8
HEAD_TOLERANCE       0.005
THREADS              8


